*Heading
** Job name: ParaviewTest Model name: Model-1
** Generated by: Abaqus/CAE Student Edition 2020
*Preprint, echo=NO, model=NO, history=NO, contact=NO
**
** PARTS
**
*Part, name=Part-1
*NODE
      1,   10.0787659,         -30.,           2.
      2,           5.,         -30.,           2.
      3,           5.,         -30.,           0.
      4,   10.0787659,         -30.,           0.
      5,           0.,         -10.,           2.
      6,           0.,         -10.,           0.
      7,         -10.,          -5.,           2.
      8,   10.0787659,  -4.83926439,           2.
      9,   10.0787659,  -4.83926439,           0.
     10,         -10.,          -5.,           0.
     11,          -5.,         -30.,           2.
     12,          -5.,         -30.,           0.
     13,         -10.,         -30.,           0.
     14,         -10.,         -30.,           2.
     15,   7.53938293,         -30.,           2.
     16,   7.53938293,         -30.,           0.
     17,   4.28571415,  -27.1428566,           2.
     18,   3.57142854,  -24.2857151,           2.
     19,   2.85714293,  -21.4285717,           2.
     20,   2.14285707,  -18.5714283,           2.
** ... 130 like lines cut

*USER ELEMENT, TYPE=U5, Nodes=4, Coordinates=3, Properties=5, Variables=20
1,2,3
*ELEMENT, TYPE=U5, ELSET=COSTUM
  1, 122,  56,  92, 145
  2, 145, 121,  55,  66
  3, 146, 115, 136, 102
  4, 146,  74,  84, 102
  5, 146,  29,   7,  81
  6, 146,  29, 115,  84
  7, 146,  10,   7,  40
  8, 146,  74,  10,  40
  9, 147, 127, 128,  97
 10,  15,  16, 148, 147
 11, 147,  16, 148,  83
 12, 147,  48, 128,  47
 13,   2,  28, 148,   3
 14, 147,  47,  15,   1
 15, 147,  47,   1,   4
 16, 147,  48,  47,   4
 17, 149,  13,  82,  14
 18, 149,  82,  13,  67
 19, 149, 114,  82,  67
 20, 149,  82,  75,  14
** ... 323 like lines cut
** Section: Section-1

*UEL Property, Elset=COSTUM
1e+10, 0.33,24,44, 1
*End Part
**  
**
** ASSEMBLY
**
*Assembly, name=Assembly
**  
*Instance, name=Part-1-1, part=Part-1
*End Instance
**  
*Nset, nset=Bootom, instance=Part-1-1
  1,  2,  3,  4, 11, 12, 13, 14, 15, 16, 67, 82
*Nset, nset=Top, instance=Part-1-1
 31, 32, 37, 38
*End Assembly
** 
** MATERIALS
** 
*Material, name=Material-1
*Elastic
 1e+10, 0.33
** 
** BOUNDARY CONDITIONS
** 
** Name: BC-1 Type: Symmetry/Antisymmetry/Encastre
*Boundary
Bootom, ENCASTRE
** ----------------------------------------------------------------
** 
** STEP: Step-1
** 
*Step, name=Step-1, nlgeom=NO
*Static, direct
0.1, 1., 
** 
** LOADS
** 
** Name: Load-2   Type: Concentrated force
*Cload
Top, 2, -9e+09
Top, 3, 0.
** 
** OUTPUT REQUESTS
** 
*Restart, write, frequency=0
** 
** FIELD OUTPUT: F-Output-1
** 
*Output, field, variable=PRESELECT
** 
** HISTORY OUTPUT: H-Output-1
** 
*Output, history, variable=PRESELECT
*End Step
